71457832
  -OEChem-09252418463D

 87 89  0     1  0  0  0  0  0999 V2000
   -5.0443    0.6024   -1.0465 O   0  0  0  0  0  0  0  0  0  0  0  0
   -9.4259   -0.9382   -0.7775 O   0  0  0  0  0  0  0  0  0  0  0  0
   -2.7373   -0.4003   -2.2369 O   0  0  0  0  0  0  0  0  0  0  0  0
    2.6050    3.6915    1.1690 O   0  0  0  0  0  0  0  0  0  0  0  0
    5.2396    3.2080    1.1900 O   0  0  0  0  0  0  0  0  0  0  0  0
    9.0242   -3.0037   -0.5780 O   0  0  0  0  0  0  0  0  0  0  0  0
   11.6037   -1.9868   -0.7784 O   0  0  0  0  0  0  0  0  0  0  0  0
   -6.5127   -0.8185    0.2223 C   0  0  1  0  0  0  0  0  0  0  0  0
   -5.4346   -1.6155    0.9603 C   0  0  2  0  0  0  0  0  0  0  0  0
   -7.8285   -0.8206    1.0113 C   0  0  0  0  0  0  0  0  0  0  0  0
   -6.0518    0.6279   -0.0357 C   0  0  2  0  0  0  0  0  0  0  0  0
   -8.9341   -0.0774    0.2498 C   0  0  1  0  0  0  0  0  0  0  0  0
   -5.6228   -3.1211    0.6859 C   0  0  0  0  0  0  0  0  0  0  0  0
   -8.4722    1.2216   -0.3679 C   0  0  0  0  0  0  0  0  0  0  0  0
   -7.1684    1.5342   -0.4734 C   0  0  0  0  0  0  0  0  0  0  0  0
   -5.4846   -1.2868    2.4530 C   0  0  0  0  0  0  0  0  0  0  0  0
   -4.4028   -4.0025    0.9886 C   0  0  0  0  0  0  0  0  0  0  0  0
   -9.5439    2.1647   -0.8345 C   0  0  0  0  0  0  0  0  0  0  0  0
   -3.2137   -3.6607    0.1349 C   0  0  0  0  0  0  0  0  0  0  0  0
   -3.8125    1.0836   -0.6958 C   0  0  0  0  0  0  0  0  0  0  0  0
   -2.0246   -3.1591    0.5194 C   0  0  0  0  0  0  0  0  0  0  0  0
   -2.6574    0.5796   -1.2937 C   0  0  0  0  0  0  0  0  0  0  0  0
   -3.7176    2.0868    0.2686 C   0  0  0  0  0  0  0  0  0  0  0  0
   -1.4076    1.0790   -0.9272 C   0  0  0  0  0  0  0  0  0  0  0  0
   -2.4677    2.5860    0.6354 C   0  0  0  0  0  0  0  0  0  0  0  0
   -1.6331   -2.8214    1.9297 C   0  0  0  0  0  0  0  0  0  0  0  0
   -0.9492   -2.8899   -0.5004 C   0  0  0  0  0  0  0  0  0  0  0  0
   -1.3127    2.0821    0.0373 C   0  0  0  0  0  0  0  0  0  0  0  0
   -0.0092    2.6025    0.4189 C   0  0  0  0  0  0  0  0  0  0  0  0
   -2.8611    0.0165   -3.5952 C   0  0  0  0  0  0  0  0  0  0  0  0
    1.1720    1.9686    0.2214 C   0  0  0  0  0  0  0  0  0  0  0  0
    2.5022    2.4432    0.5843 C   0  0  0  0  0  0  0  0  0  0  0  0
    3.5916    1.6997    0.3240 C   0  0  0  0  0  0  0  0  0  0  0  0
    4.9791    2.1378    0.6554 C   0  0  0  0  0  0  0  0  0  0  0  0
    6.0270    1.1488    0.2763 C   0  0  0  0  0  0  0  0  0  0  0  0
    7.3180    1.4189    0.5190 C   0  0  0  0  0  0  0  0  0  0  0  0
    8.4387    0.5244    0.1788 C   0  0  0  0  0  0  0  0  0  0  0  0
    8.2048   -0.8328   -0.0422 C   0  0  0  0  0  0  0  0  0  0  0  0
    9.7330    1.0345    0.0780 C   0  0  0  0  0  0  0  0  0  0  0  0
    9.2651   -1.6800   -0.3642 C   0  0  0  0  0  0  0  0  0  0  0  0
   10.5596   -1.1700   -0.4649 C   0  0  0  0  0  0  0  0  0  0  0  0
   10.7934    0.1872   -0.2438 C   0  0  0  0  0  0  0  0  0  0  0  0
    7.6731   -3.4443   -0.4554 C   0  0  0  0  0  0  0  0  0  0  0  0
   -6.6825   -1.2841   -0.7593 H   0  0  0  0  0  0  0  0  0  0  0  0
   -4.4521   -1.3215    0.5809 H   0  0  0  0  0  0  0  0  0  0  0  0
   -7.7149   -0.3035    1.9715 H   0  0  0  0  0  0  0  0  0  0  0  0
   -8.1515   -1.8475    1.2170 H   0  0  0  0  0  0  0  0  0  0  0  0
   -5.7122    1.0141    0.9274 H   0  0  0  0  0  0  0  0  0  0  0  0
   -9.7639    0.1198    0.9391 H   0  0  0  0  0  0  0  0  0  0  0  0
   -5.8803   -3.2737   -0.3708 H   0  0  0  0  0  0  0  0  0  0  0  0
   -6.4741   -3.5033    1.2628 H   0  0  0  0  0  0  0  0  0  0  0  0
   -6.8812    2.4965   -0.8906 H   0  0  0  0  0  0  0  0  0  0  0  0
   -6.3440   -1.7387    2.9594 H   0  0  0  0  0  0  0  0  0  0  0  0
   -4.5970   -1.7011    2.9449 H   0  0  0  0  0  0  0  0  0  0  0  0
   -5.4711   -0.2134    2.6599 H   0  0  0  0  0  0  0  0  0  0  0  0
   -4.6692   -5.0474    0.7853 H   0  0  0  0  0  0  0  0  0  0  0  0
   -4.1764   -3.9584    2.0568 H   0  0  0  0  0  0  0  0  0  0  0  0
  -10.1583    1.6904   -1.6065 H   0  0  0  0  0  0  0  0  0  0  0  0
   -9.1293    3.0852   -1.2587 H   0  0  0  0  0  0  0  0  0  0  0  0
  -10.1919    2.4461    0.0018 H   0  0  0  0  0  0  0  0  0  0  0  0
   -9.7928   -1.7297   -0.3480 H   0  0  0  0  0  0  0  0  0  0  0  0
   -3.3619   -3.8591   -0.9263 H   0  0  0  0  0  0  0  0  0  0  0  0
   -4.5766    2.5775    0.7142 H   0  0  0  0  0  0  0  0  0  0  0  0
   -0.5359    0.6756   -1.4348 H   0  0  0  0  0  0  0  0  0  0  0  0
   -2.4135    3.3790    1.3776 H   0  0  0  0  0  0  0  0  0  0  0  0
   -2.4164   -3.0203    2.6629 H   0  0  0  0  0  0  0  0  0  0  0  0
   -1.3824   -1.7577    2.0037 H   0  0  0  0  0  0  0  0  0  0  0  0
   -0.7537   -3.4035    2.2250 H   0  0  0  0  0  0  0  0  0  0  0  0
   -1.2871   -3.0765   -1.5251 H   0  0  0  0  0  0  0  0  0  0  0  0
   -0.0831   -3.5329   -0.3121 H   0  0  0  0  0  0  0  0  0  0  0  0
   -0.6217   -1.8477   -0.4438 H   0  0  0  0  0  0  0  0  0  0  0  0
   -0.0116    3.5764    0.9037 H   0  0  0  0  0  0  0  0  0  0  0  0
   -3.7739    0.6040   -3.7363 H   0  0  0  0  0  0  0  0  0  0  0  0
   -1.9867    0.6012   -3.8981 H   0  0  0  0  0  0  0  0  0  0  0  0
   -2.9195   -0.8766   -4.2232 H   0  0  0  0  0  0  0  0  0  0  0  0
    1.1748    0.9806   -0.2347 H   0  0  0  0  0  0  0  0  0  0  0  0
    3.4860    0.7265   -0.1490 H   0  0  0  0  0  0  0  0  0  0  0  0
    3.5344    3.8957    1.3556 H   0  0  0  0  0  0  0  0  0  0  0  0
    5.6957    0.2420   -0.2152 H   0  0  0  0  0  0  0  0  0  0  0  0
    7.6029    2.3573    0.9890 H   0  0  0  0  0  0  0  0  0  0  0  0
    7.1963   -1.2085    0.0714 H   0  0  0  0  0  0  0  0  0  0  0  0
    9.9337    2.0898    0.2457 H   0  0  0  0  0  0  0  0  0  0  0  0
   11.7968    0.5978   -0.3192 H   0  0  0  0  0  0  0  0  0  0  0  0
   12.4212   -1.4605   -0.8034 H   0  0  0  0  0  0  0  0  0  0  0  0
    7.6661   -4.5190   -0.6661 H   0  0  0  0  0  0  0  0  0  0  0  0
    7.0235   -2.9728   -1.2009 H   0  0  0  0  0  0  0  0  0  0  0  0
    7.2987   -3.3213    0.5667 H   0  0  0  0  0  0  0  0  0  0  0  0
  1 11  1  0  0  0  0
  1 20  1  0  0  0  0
  2 12  1  0  0  0  0
  2 61  1  0  0  0  0
  3 22  1  0  0  0  0
  3 30  1  0  0  0  0
  4 32  1  0  0  0  0
  4 78  1  0  0  0  0
  5 34  2  0  0  0  0
  6 40  1  0  0  0  0
  6 43  1  0  0  0  0
  7 41  1  0  0  0  0
  7 84  1  0  0  0  0
  8  9  1  0  0  0  0
  8 10  1  0  0  0  0
  8 11  1  0  0  0  0
  8 44  1  0  0  0  0
  9 13  1  0  0  0  0
  9 16  1  0  0  0  0
  9 45  1  0  0  0  0
 10 12  1  0  0  0  0
 10 46  1  0  0  0  0
 10 47  1  0  0  0  0
 11 15  1  0  0  0  0
 11 48  1  0  0  0  0
 12 14  1  0  0  0  0
 12 49  1  0  0  0  0
 13 17  1  0  0  0  0
 13 50  1  0  0  0  0
 13 51  1  0  0  0  0
 14 15  2  0  0  0  0
 14 18  1  0  0  0  0
 15 52  1  0  0  0  0
 16 53  1  0  0  0  0
 16 54  1  0  0  0  0
 16 55  1  0  0  0  0
 17 19  1  0  0  0  0
 17 56  1  0  0  0  0
 17 57  1  0  0  0  0
 18 58  1  0  0  0  0
 18 59  1  0  0  0  0
 18 60  1  0  0  0  0
 19 21  2  0  0  0  0
 19 62  1  0  0  0  0
 20 22  2  0  0  0  0
 20 23  1  0  0  0  0
 21 26  1  0  0  0  0
 21 27  1  0  0  0  0
 22 24  1  0  0  0  0
 23 25  2  0  0  0  0
 23 63  1  0  0  0  0
 24 28  2  0  0  0  0
 24 64  1  0  0  0  0
 25 28  1  0  0  0  0
 25 65  1  0  0  0  0
 26 66  1  0  0  0  0
 26 67  1  0  0  0  0
 26 68  1  0  0  0  0
 27 69  1  0  0  0  0
 27 70  1  0  0  0  0
 27 71  1  0  0  0  0
 28 29  1  0  0  0  0
 29 31  2  0  0  0  0
 29 72  1  0  0  0  0
 30 73  1  0  0  0  0
 30 74  1  0  0  0  0
 30 75  1  0  0  0  0
 31 32  1  0  0  0  0
 31 76  1  0  0  0  0
 32 33  2  0  0  0  0
 33 34  1  0  0  0  0
 33 77  1  0  0  0  0
 34 35  1  0  0  0  0
 35 36  2  0  0  0  0
 35 79  1  0  0  0  0
 36 37  1  0  0  0  0
 36 80  1  0  0  0  0
 37 38  2  0  0  0  0
 37 39  1  0  0  0  0
 38 40  1  0  0  0  0
 38 81  1  0  0  0  0
 39 42  2  0  0  0  0
 39 82  1  0  0  0  0
 40 41  2  0  0  0  0
 41 42  1  0  0  0  0
 42 83  1  0  0  0  0
 43 85  1  0  0  0  0
 43 86  1  0  0  0  0
 43 87  1  0  0  0  0
M  END
> <PUBCHEM_COMPOUND_CID>
71457832

> <PUBCHEM_CONFORMER_RMSD>
1.2

> <PUBCHEM_CONFORMER_DIVERSEORDER>
1
107
55
112
4
76
87
14
48
54
104
97
47
94
120
123
11
49
6
20
83
62
13
51
89
70
88
17
106
115
58
95
117
81
84
92
29
116
109
56
98
18
101
66
74
99
63
24
110
103
42
31
25
79
90
7
108
102
26
121
32
75
45
27
100
28
86
73
111
39
114
57
34
69
122
61
21
12
44
113
91
85
46
118
41
30
15
43
65
82
64
105
71
8
2
68
50
53
77
38
10
36
78
3
37
60
16
9
52
59
96
80
119
22
40
93
33
5
35
67
23
72
19

> <PUBCHEM_MMFF94_PARTIAL_CHARGES>
54
1 -0.36
11 0.42
12 0.42
14 -0.28
15 -0.29
17 0.14
18 0.14
19 -0.29
2 -0.68
20 0.08
21 -0.28
22 0.08
23 -0.15
24 -0.15
25 -0.15
26 0.14
27 0.14
28 0.03
29 -0.18
3 -0.36
30 0.28
31 -0.15
32 0.08
33 -0.14
34 0.54
35 -0.14
36 -0.18
37 0.03
38 -0.15
39 -0.15
4 -0.53
40 0.08
41 0.08
42 -0.15
43 0.28
5 -0.57
52 0.15
6 -0.36
61 0.4
62 0.15
63 0.15
64 0.15
65 0.15
7 -0.53
72 0.15
76 0.15
77 0.15
78 0.45
79 0.15
80 0.15
81 0.15
82 0.15
83 0.15
84 0.45

> <PUBCHEM_EFFECTIVE_ROTOR_COUNT>
13.8

> <PUBCHEM_PHARMACOPHORE_FEATURES>
14
1 1 acceptor
1 16 hydrophobe
1 2 acceptor
1 2 donor
1 3 acceptor
1 4 donor
1 5 acceptor
1 6 acceptor
1 7 donor
3 21 26 27 hydrophobe
4 9 13 17 19 hydrophobe
6 20 22 23 24 25 28 rings
6 37 38 39 40 41 42 rings
6 8 10 11 12 14 15 rings

> <PUBCHEM_HEAVY_ATOM_COUNT>
43

> <PUBCHEM_ATOM_DEF_STEREO_COUNT>
4

> <PUBCHEM_ATOM_UDEF_STEREO_COUNT>
0

> <PUBCHEM_BOND_DEF_STEREO_COUNT>
3

> <PUBCHEM_BOND_UDEF_STEREO_COUNT>
0

> <PUBCHEM_ISOTOPIC_ATOM_COUNT>
0

> <PUBCHEM_COMPONENT_COUNT>
1

> <PUBCHEM_CACTVS_TAUTO_COUNT>
17

> <PUBCHEM_CONFORMER_ID>
04425C2800000001

> <PUBCHEM_MMFF94_ENERGY>
136.4196

> <PUBCHEM_FEATURE_SELFOVERLAP>
71.061

> <PUBCHEM_SHAPE_FINGERPRINT>
12013929 2 18342735200709748937
12728209 37 15410892973030601912
12758862 56 18341885316891872416
13383668 90 17458341949445244197
15230672 131 18334569166145493651
15773879 343 18260267430748583594
16067689 302 18343022152191229358
20105231 36 18412262861024495233
23569917 315 18119811559631719035
4017518 198 18408880759849037159
45377200 153 18334577971440322002
4616759 239 13901904552815680189
4625314 4 18187927321645263132
54039377 194 18413670210418202972
9937071 3 18343018888052981632

> <PUBCHEM_SHAPE_MULTIPOLES>
843.83
40.19
4.77
1.59
88.82
3.17
0.86
11.06
4.48
0.32
-1.39
-2.32
0.25
4.68

> <PUBCHEM_SHAPE_SELFOVERLAP>
1761.138

> <PUBCHEM_SHAPE_VOLUME>
477.1

> <PUBCHEM_COORDINATE_TYPE>
2
5
10

$$$$
