14632997
  -OEChem-09272410013D

 42 43  0     1  0  0  0  0  0999 V2000
   -2.1826   -1.9680    1.3489 O   0  0  0  0  0  0  0  0  0  0  0  0
   -1.3058    2.2247   -1.5081 O   0  0  0  0  0  0  0  0  0  0  0  0
    2.3506    1.5301    1.1730 O   0  0  0  0  0  0  0  0  0  0  0  0
   -1.2062    0.7173    0.4159 C   0  0  2  0  0  0  0  0  0  0  0  0
   -0.8388   -0.6588   -0.2137 C   0  0  2  0  0  0  0  0  0  0  0  0
   -2.1058   -1.5157   -0.0025 C   0  0  2  0  0  0  0  0  0  0  0  0
   -2.7516    0.7500    0.4616 C   0  0  0  0  0  0  0  0  0  0  0  0
   -0.5735    1.9395   -0.3076 C   0  0  1  0  0  0  0  0  0  0  0  0
   -3.2248   -0.5092   -0.2572 C   0  0  0  0  0  0  0  0  0  0  0  0
    0.4291   -1.2706    0.4172 C   0  0  0  0  0  0  0  0  0  0  0  0
    0.8894    1.7269   -0.7267 C   0  0  0  0  0  0  0  0  0  0  0  0
   -2.1870   -2.7233   -0.9279 C   0  0  0  0  0  0  0  0  0  0  0  0
    1.7007   -0.5121    0.1689 C   0  0  0  0  0  0  0  0  0  0  0  0
   -0.6923    3.1904    0.5740 C   0  0  0  0  0  0  0  0  0  0  0  0
    1.7099    0.9682    0.2889 C   0  0  0  0  0  0  0  0  0  0  0  0
    2.8684   -1.0744   -0.1685 C   0  0  0  0  0  0  0  0  0  0  0  0
    3.0175   -2.5586   -0.3282 C   0  0  0  0  0  0  0  0  0  0  0  0
    4.1029   -0.2565   -0.4078 C   0  0  0  0  0  0  0  0  0  0  0  0
   -0.8550    0.7242    1.4581 H   0  0  0  0  0  0  0  0  0  0  0  0
   -0.6817   -0.5401   -1.2943 H   0  0  0  0  0  0  0  0  0  0  0  0
   -3.1982    1.6460    0.0208 H   0  0  0  0  0  0  0  0  0  0  0  0
   -3.0781    0.7192    1.5089 H   0  0  0  0  0  0  0  0  0  0  0  0
   -4.1929   -0.8383    0.1341 H   0  0  0  0  0  0  0  0  0  0  0  0
   -3.3327   -0.3031   -1.3289 H   0  0  0  0  0  0  0  0  0  0  0  0
    0.5038   -2.2944    0.0402 H   0  0  0  0  0  0  0  0  0  0  0  0
    0.3014   -1.3532    1.5042 H   0  0  0  0  0  0  0  0  0  0  0  0
    1.3884    2.6830   -0.9309 H   0  0  0  0  0  0  0  0  0  0  0  0
    0.9467    1.1900   -1.6834 H   0  0  0  0  0  0  0  0  0  0  0  0
   -2.0985   -2.4354   -1.9804 H   0  0  0  0  0  0  0  0  0  0  0  0
   -1.4009   -3.4504   -0.6990 H   0  0  0  0  0  0  0  0  0  0  0  0
   -3.1404   -3.2475   -0.7956 H   0  0  0  0  0  0  0  0  0  0  0  0
   -0.1435    3.0769    1.5143 H   0  0  0  0  0  0  0  0  0  0  0  0
   -0.3058    4.0740    0.0526 H   0  0  0  0  0  0  0  0  0  0  0  0
   -1.7387    3.4131    0.8098 H   0  0  0  0  0  0  0  0  0  0  0  0
   -3.0278   -2.4359    1.4601 H   0  0  0  0  0  0  0  0  0  0  0  0
   -1.2825    1.4352   -2.0742 H   0  0  0  0  0  0  0  0  0  0  0  0
    2.7866   -2.8575   -1.3553 H   0  0  0  0  0  0  0  0  0  0  0  0
    4.0497   -2.8602   -0.1154 H   0  0  0  0  0  0  0  0  0  0  0  0
    2.3969   -3.1319    0.3663 H   0  0  0  0  0  0  0  0  0  0  0  0
    4.7225   -0.2334    0.4945 H   0  0  0  0  0  0  0  0  0  0  0  0
    4.6983   -0.7122   -1.2081 H   0  0  0  0  0  0  0  0  0  0  0  0
    3.9170    0.7689   -0.7382 H   0  0  0  0  0  0  0  0  0  0  0  0
  1  6  1  0  0  0  0
  1 35  1  0  0  0  0
  2  8  1  0  0  0  0
  2 36  1  0  0  0  0
  3 15  2  0  0  0  0
  4  5  1  0  0  0  0
  4  7  1  0  0  0  0
  4  8  1  0  0  0  0
  4 19  1  0  0  0  0
  5  6  1  0  0  0  0
  5 10  1  0  0  0  0
  5 20  1  0  0  0  0
  6  9  1  0  0  0  0
  6 12  1  0  0  0  0
  7  9  1  0  0  0  0
  7 21  1  0  0  0  0
  7 22  1  0  0  0  0
  8 11  1  0  0  0  0
  8 14  1  0  0  0  0
  9 23  1  0  0  0  0
  9 24  1  0  0  0  0
 10 13  1  0  0  0  0
 10 25  1  0  0  0  0
 10 26  1  0  0  0  0
 11 15  1  0  0  0  0
 11 27  1  0  0  0  0
 11 28  1  0  0  0  0
 12 29  1  0  0  0  0
 12 30  1  0  0  0  0
 12 31  1  0  0  0  0
 13 15  1  0  0  0  0
 13 16  2  0  0  0  0
 14 32  1  0  0  0  0
 14 33  1  0  0  0  0
 14 34  1  0  0  0  0
 16 17  1  0  0  0  0
 16 18  1  0  0  0  0
 17 37  1  0  0  0  0
 17 38  1  0  0  0  0
 17 39  1  0  0  0  0
 18 40  1  0  0  0  0
 18 41  1  0  0  0  0
 18 42  1  0  0  0  0
M  END
> <PUBCHEM_COMPOUND_CID>
14632997

> <PUBCHEM_CONFORMER_RMSD>
0.6

> <PUBCHEM_CONFORMER_DIVERSEORDER>
10
72
21
28
58
37
69
8
32
27
71
79
4
77
15
38
76
78
46
25
31
51
83
44
82
40
39
14
29
3
74
80
34
59
18
84
63
67
1
42
26
68
81
33
24
13
66
16
65
17
9
20
5
45
12
52
47
61
11
6
19
55
48
43
41
23
70
22
56
62
30
7
2
35
60
64
50
54
36
49
75
73
53
57

> <PUBCHEM_MMFF94_PARTIAL_CHARGES>
14
1 -0.68
10 0.14
11 0.06
13 -0.12
15 0.49
16 -0.28
17 0.14
18 0.14
2 -0.68
3 -0.57
35 0.4
36 0.4
6 0.28
8 0.28

> <PUBCHEM_EFFECTIVE_ROTOR_COUNT>
1.2

> <PUBCHEM_PHARMACOPHORE_FEATURES>
8
1 1 acceptor
1 1 donor
1 2 acceptor
1 2 donor
1 3 acceptor
3 16 17 18 hydrophobe
5 4 5 6 7 9 rings
7 4 5 8 10 11 13 15 rings

> <PUBCHEM_HEAVY_ATOM_COUNT>
18

> <PUBCHEM_ATOM_DEF_STEREO_COUNT>
0

> <PUBCHEM_ATOM_UDEF_STEREO_COUNT>
4

> <PUBCHEM_BOND_DEF_STEREO_COUNT>
0

> <PUBCHEM_BOND_UDEF_STEREO_COUNT>
0

> <PUBCHEM_ISOTOPIC_ATOM_COUNT>
0

> <PUBCHEM_COMPONENT_COUNT>
1

> <PUBCHEM_CACTVS_TAUTO_COUNT>
5

> <PUBCHEM_CONFORMER_ID>
00DF48250000000A

> <PUBCHEM_MMFF94_ENERGY>
63.84

> <PUBCHEM_FEATURE_SELFOVERLAP>
40.625

> <PUBCHEM_SHAPE_FINGERPRINT>
10967382 1 18411418435893844754
11132069 177 18339352076012249776
11322862 65 18120091684801002893
11578080 2 17488441131220090625
12054548 360 18412548725710769294
12173636 292 17908425758100721060
12382932 28 18338227288364890817
12553582 1 18411419531332363182
13027679 85 18411421726039493957
13140716 1 18409730685550483826
14081887 123 18270102553399475832
14178342 30 18126559265698774755
14181834 199 17468176178089272613
14251745 187 18409449189584207282
14790565 3 17907870504375714440
15001771 113 18410018766202713041
15536298 74 18200593721513868920
16752209 62 18044922485852010309
16945 1 18269545048947588304
17357779 13 18336813247712875143
17804303 29 18271251512653329870
19591789 44 17619356407184085161
19868273 325 18408324410241841919
20510252 161 18126285246637856592
20559304 39 17977389652740012971
20645477 70 17615112722183383911
21041028 32 18265356051770027545
21501502 16 18338521811926675220
21524375 3 17687463464527995717
22721475 48 18411704249024647854
22802520 49 18410860957829057106
2334 1 18265335199287262018
23388829 49 17909822481327612975
23402539 116 18201430342836733343
23419403 2 17038036144008937205
23557571 272 18199478666963957942
23559900 14 17837486359589818126
238 59 16311022159327353277
257057 1 18339912831137175431
2748010 2 18338230582514856358
3084891 72 17333643882843031832
34934 24 18409442592102996618
352729 6 17690280409018304200
427121 178 16051296755728468177
46194498 28 17325728936991266175
598444 67 18192436255689729471
6992083 37 18272103711638090459
7364860 26 17980202207583847377
7832392 63 18341895246549616339
81228 2 18334294223550334768
8809292 202 18336550404478705130
9709674 26 18268997471231330350

> <PUBCHEM_SHAPE_MULTIPOLES>
352.82
5.25
3.34
1
3.25
0.51
-0.04
-2.5
-0.2
-0.96
-0.24
-0.26
0.13
0.25

> <PUBCHEM_SHAPE_SELFOVERLAP>
733.332

> <PUBCHEM_SHAPE_VOLUME>
202.8

> <PUBCHEM_COORDINATE_TYPE>
2
5
10

$$$$

