10250249
  -OEChem-09252417343D

 51 52  0     0  0  0  0  0  0999 V2000
    5.6156    1.2880   -2.6141 O   0  0  0  0  0  0  0  0  0  0  0  0
    6.6703    1.1451    2.0553 O   0  0  0  0  0  0  0  0  0  0  0  0
    7.1694    2.1340   -0.4828 O   0  0  0  0  0  0  0  0  0  0  0  0
   -7.4271    2.2984    0.9433 O   0  0  0  0  0  0  0  0  0  0  0  0
   -8.7252    0.8698   -1.0556 O   0  0  0  0  0  0  0  0  0  0  0  0
    1.1920   -3.7827    0.4268 O   0  0  0  0  0  0  0  0  0  0  0  0
   -0.9020   -1.1719    1.3123 O   0  0  0  0  0  0  0  0  0  0  0  0
    4.1192   -0.5901    0.1224 C   0  0  0  0  0  0  0  0  0  0  0  0
    4.8859   -0.1796    1.2008 C   0  0  0  0  0  0  0  0  0  0  0  0
    4.3535   -0.1068   -1.1546 C   0  0  0  0  0  0  0  0  0  0  0  0
    5.3829    0.8120   -1.3591 C   0  0  0  0  0  0  0  0  0  0  0  0
    5.9152    0.7393    0.9964 C   0  0  0  0  0  0  0  0  0  0  0  0
    6.1639    1.2350   -0.2835 C   0  0  0  0  0  0  0  0  0  0  0  0
    3.0299   -1.5590    0.3376 C   0  0  0  0  0  0  0  0  0  0  0  0
   -4.8867   -0.1617    0.0764 C   0  0  0  0  0  0  0  0  0  0  0  0
   -0.4491   -2.4219   -0.6977 C   0  0  0  0  0  0  0  0  0  0  0  0
    1.9985   -1.7432   -0.4985 C   0  0  0  0  0  0  0  0  0  0  0  0
    0.9388   -2.7460   -0.1813 C   0  0  0  0  0  0  0  0  0  0  0  0
   -5.5123    0.9025    0.7053 C   0  0  0  0  0  0  0  0  0  0  0  0
   -6.8081    1.2537    0.3265 C   0  0  0  0  0  0  0  0  0  0  0  0
   -3.5176   -0.5324    0.4763 C   0  0  0  0  0  0  0  0  0  0  0  0
   -5.5211   -0.8844   -0.9208 C   0  0  0  0  0  0  0  0  0  0  0  0
   -1.3090   -1.5864    0.2299 C   0  0  0  0  0  0  0  0  0  0  0  0
   -2.6744   -1.2550   -0.2744 C   0  0  0  0  0  0  0  0  0  0  0  0
   -7.4603    0.5357   -0.6759 C   0  0  0  0  0  0  0  0  0  0  0  0
   -6.8168   -0.5333   -1.2994 C   0  0  0  0  0  0  0  0  0  0  0  0
    4.9163    2.4700   -2.9989 C   0  0  0  0  0  0  0  0  0  0  0  0
    6.3505    0.5903    3.3297 C   0  0  0  0  0  0  0  0  0  0  0  0
   -6.6919    2.9805    1.9576 C   0  0  0  0  0  0  0  0  0  0  0  0
    4.6466   -0.5959    2.1735 H   0  0  0  0  0  0  0  0  0  0  0  0
    3.7807   -0.4295   -2.0190 H   0  0  0  0  0  0  0  0  0  0  0  0
    3.1021   -2.1551    1.2446 H   0  0  0  0  0  0  0  0  0  0  0  0
   -0.9592   -3.3751   -0.8820 H   0  0  0  0  0  0  0  0  0  0  0  0
   -0.3625   -1.9086   -1.6622 H   0  0  0  0  0  0  0  0  0  0  0  0
    1.8355   -1.1427   -1.3855 H   0  0  0  0  0  0  0  0  0  0  0  0
   -4.9577    1.4265    1.4764 H   0  0  0  0  0  0  0  0  0  0  0  0
   -3.2060   -0.1743    1.4548 H   0  0  0  0  0  0  0  0  0  0  0  0
   -5.0675   -1.7360   -1.4179 H   0  0  0  0  0  0  0  0  0  0  0  0
   -2.9163   -1.6236   -1.2640 H   0  0  0  0  0  0  0  0  0  0  0  0
   -7.3156   -1.1036   -2.0786 H   0  0  0  0  0  0  0  0  0  0  0  0
    7.2237    2.3335   -1.4333 H   0  0  0  0  0  0  0  0  0  0  0  0
    3.8373    2.2865   -3.0139 H   0  0  0  0  0  0  0  0  0  0  0  0
    5.2380    2.7454   -4.0070 H   0  0  0  0  0  0  0  0  0  0  0  0
    5.1465    3.2971   -2.3199 H   0  0  0  0  0  0  0  0  0  0  0  0
    7.0498    1.0223    4.0532 H   0  0  0  0  0  0  0  0  0  0  0  0
    6.5048   -0.4939    3.3487 H   0  0  0  0  0  0  0  0  0  0  0  0
    5.3436    0.8754    3.6534 H   0  0  0  0  0  0  0  0  0  0  0  0
   -9.0144    0.2651   -1.7605 H   0  0  0  0  0  0  0  0  0  0  0  0
   -7.3354    3.7803    2.3385 H   0  0  0  0  0  0  0  0  0  0  0  0
   -6.4675    2.3236    2.8049 H   0  0  0  0  0  0  0  0  0  0  0  0
   -5.7951    3.4613    1.5522 H   0  0  0  0  0  0  0  0  0  0  0  0
  1 11  1  0  0  0  0
  1 27  1  0  0  0  0
  2 12  1  0  0  0  0
  2 28  1  0  0  0  0
  3 13  1  0  0  0  0
  3 41  1  0  0  0  0
  4 20  1  0  0  0  0
  4 29  1  0  0  0  0
  5 25  1  0  0  0  0
  5 48  1  0  0  0  0
  6 18  2  0  0  0  0
  7 23  2  0  0  0  0
  8  9  2  0  0  0  0
  8 10  1  0  0  0  0
  8 14  1  0  0  0  0
  9 12  1  0  0  0  0
  9 30  1  0  0  0  0
 10 11  2  0  0  0  0
 10 31  1  0  0  0  0
 11 13  1  0  0  0  0
 12 13  2  0  0  0  0
 14 17  2  0  0  0  0
 14 32  1  0  0  0  0
 15 19  2  0  0  0  0
 15 21  1  0  0  0  0
 15 22  1  0  0  0  0
 16 18  1  0  0  0  0
 16 23  1  0  0  0  0
 16 33  1  0  0  0  0
 16 34  1  0  0  0  0
 17 18  1  0  0  0  0
 17 35  1  0  0  0  0
 19 20  1  0  0  0  0
 19 36  1  0  0  0  0
 20 25  2  0  0  0  0
 21 24  2  0  0  0  0
 21 37  1  0  0  0  0
 22 26  2  0  0  0  0
 22 38  1  0  0  0  0
 23 24  1  0  0  0  0
 24 39  1  0  0  0  0
 25 26  1  0  0  0  0
 26 40  1  0  0  0  0
 27 42  1  0  0  0  0
 27 43  1  0  0  0  0
 27 44  1  0  0  0  0
 28 45  1  0  0  0  0
 28 46  1  0  0  0  0
 28 47  1  0  0  0  0
 29 49  1  0  0  0  0
 29 50  1  0  0  0  0
 29 51  1  0  0  0  0
M  END
> <PUBCHEM_COMPOUND_CID>
10250249

> <PUBCHEM_CONFORMER_RMSD>
1

> <PUBCHEM_CONFORMER_DIVERSEORDER>
109
88
68
65
1
70
94
95
17
51
111
93
14
67
75
89
76
50
33
43
97
29
115
71
80
64
47
54
39
27
5
44
77
104
62
79
107
100
69
30
106
66
98
32
13
48
19
99
56
110
49
85
114
105
3
23
82
103
116
35
40
74
81
55
11
90
53
108
84
86
46
2
31
16
117
91
83
96
59
36
38
42
34
101
4
73
18
24
21
92
45
102
72
37
8
15
10
78
6
41
28
60
7
61
58
25
9
20
52
112
87
22
63
113
26
12
57

> <PUBCHEM_MMFF94_PARTIAL_CHARGES>
40
1 -0.36
10 -0.15
11 0.08
12 0.08
13 0.08
14 -0.18
15 0.03
16 0.12
17 -0.14
18 0.49
19 -0.15
2 -0.36
20 0.08
21 -0.18
22 -0.15
23 0.49
24 -0.14
25 0.08
26 -0.15
27 0.28
28 0.28
29 0.28
3 -0.53
30 0.15
31 0.15
32 0.15
35 0.15
36 0.15
37 0.15
38 0.15
39 0.15
4 -0.36
40 0.15
41 0.45
48 0.45
5 -0.53
6 -0.57
7 -0.57
8 0.03
9 -0.15

> <PUBCHEM_EFFECTIVE_ROTOR_COUNT>
9

> <PUBCHEM_PHARMACOPHORE_FEATURES>
10
1 1 acceptor
1 16 anion
1 2 acceptor
1 3 donor
1 4 acceptor
1 5 donor
1 6 acceptor
1 7 acceptor
6 15 19 20 22 25 26 rings
6 8 9 10 11 12 13 rings

> <PUBCHEM_HEAVY_ATOM_COUNT>
29

> <PUBCHEM_ATOM_DEF_STEREO_COUNT>
0

> <PUBCHEM_ATOM_UDEF_STEREO_COUNT>
0

> <PUBCHEM_BOND_DEF_STEREO_COUNT>
2

> <PUBCHEM_BOND_UDEF_STEREO_COUNT>
0

> <PUBCHEM_ISOTOPIC_ATOM_COUNT>
0

> <PUBCHEM_COMPONENT_COUNT>
1

> <PUBCHEM_CACTVS_TAUTO_COUNT>
79

> <PUBCHEM_CONFORMER_ID>
009C68090000006D

> <PUBCHEM_MMFF94_ENERGY>
108.7377

> <PUBCHEM_FEATURE_SELFOVERLAP>
50.748

> <PUBCHEM_SHAPE_FINGERPRINT>
10 15 16588027913724280279
10906281 52 18261407641000795527
11297750 10 17244131619056447718
13627175 4 9799400149383613517
13673619 4 11024107646717378211
13782708 43 11167939122227843067
14931854 50 17346322600420354850
15183329 4 18411699898302431241
15400415 2 18341049615272582471
16096371 109 17313662655294636634
16994733 274 18411979123143124873
17134984 74 13183020727046530204
20721686 146 18127688448148314196
21298829 104 18412831274218645057
21585481 104 15410348671450686155
21585481 151 12324239434197877313
22864921 267 15068893101624057417
249057 25 17559680533725152851
2748736 6 18408323302118940365
312425 54 15502374564790518282
328310 630 18411142399268630693
3418910 222 18341621413211710865
34797466 226 16343702161797738995
3504750 166 11097854095622433683
3918712 181 18411979204378997832
397638 26 13912320167079624009
397830 11 17240780501019630339
406291 66 11095622043625420604
4073 2 18409168797420050107
4169191 19 18187089455778376517
44249763 50 17417233459586316102
44880568 143 16773804679824749241
5265222 85 17489580170191988519
543368 44 18412824660818062431
54583773 228 18272367544107857045
5470011 282 14692571035234740857
57676310 1 17108746449888809205
5937810 71 16989130833995665921
59682541 52 15339124541823687830
6712543 237 14923946764878809849

> <PUBCHEM_SHAPE_MULTIPOLES>
555.72
27.49
3.05
2.27
24.88
0.72
-0.01
-22.69
0.13
0.57
0.23
-5.25
-1.88
-3.2

> <PUBCHEM_SHAPE_SELFOVERLAP>
1175.035

> <PUBCHEM_SHAPE_VOLUME>
311.7

> <PUBCHEM_COORDINATE_TYPE>
2
5
10

$$$$
