71459743
  -OEChem-09252418463D

 87 89  0     1  0  0  0  0  0999 V2000
    4.7937   -0.0586   -1.0530 O   0  0  0  0  0  0  0  0  0  0  0  0
    9.0278    1.8364   -1.4065 O   0  0  0  0  0  0  0  0  0  0  0  0
    4.2409   -2.5794   -2.0946 O   0  0  0  0  0  0  0  0  0  0  0  0
   -3.1376   -3.2176   -0.7736 O   0  0  0  0  0  0  0  0  0  0  0  0
   -5.7290   -2.5977   -0.4983 O   0  0  0  0  0  0  0  0  0  0  0  0
  -12.1580    0.7313    1.1470 O   0  0  0  0  0  0  0  0  0  0  0  0
  -11.5972    3.3881    0.5512 O   0  0  0  0  0  0  0  0  0  0  0  0
    7.1268    1.6257    0.0518 C   0  0  1  0  0  0  0  0  0  0  0  0
    7.8130    2.0734    1.3443 C   0  0  2  0  0  0  0  0  0  0  0  0
    5.6133    1.8654    0.1266 C   0  0  0  0  0  0  0  0  0  0  0  0
    7.7187    2.3535   -1.1694 C   0  0  2  0  0  0  0  0  0  0  0  0
    4.9076    1.3618   -1.1395 C   0  0  1  0  0  0  0  0  0  0  0  0
    7.2673    1.2555    2.5321 C   0  0  0  0  0  0  0  0  0  0  0  0
    5.6276    1.7268   -2.4165 C   0  0  0  0  0  0  0  0  0  0  0  0
    6.8901    2.1903   -2.4129 C   0  0  0  0  0  0  0  0  0  0  0  0
    7.6157    3.5777    1.5359 C   0  0  0  0  0  0  0  0  0  0  0  0
    7.5197   -0.2571    2.4605 C   0  0  0  0  0  0  0  0  0  0  0  0
    4.8529    1.5741   -3.6943 C   0  0  0  0  0  0  0  0  0  0  0  0
    7.0200   -0.9872    3.6759 C   0  0  0  0  0  0  0  0  0  0  0  0
    3.5253   -0.5697   -1.0076 C   0  0  0  0  0  0  0  0  0  0  0  0
    5.7786   -1.4460    3.9243 C   0  0  0  0  0  0  0  0  0  0  0  0
    3.2505   -1.8335   -1.5302 C   0  0  0  0  0  0  0  0  0  0  0  0
    2.5027    0.1846   -0.4323 C   0  0  0  0  0  0  0  0  0  0  0  0
    4.5969   -1.3111    3.0066 C   0  0  0  0  0  0  0  0  0  0  0  0
    5.4796   -2.1658    5.2132 C   0  0  0  0  0  0  0  0  0  0  0  0
    1.9530   -2.3428   -1.4774 C   0  0  0  0  0  0  0  0  0  0  0  0
    1.2051   -0.3248   -0.3798 C   0  0  0  0  0  0  0  0  0  0  0  0
    0.9303   -1.5885   -0.9023 C   0  0  0  0  0  0  0  0  0  0  0  0
   -0.4223   -2.1205   -0.8473 C   0  0  0  0  0  0  0  0  0  0  0  0
    3.8762   -3.8604   -2.6051 C   0  0  0  0  0  0  0  0  0  0  0  0
   -1.5453   -1.3804   -0.6820 C   0  0  0  0  0  0  0  0  0  0  0  0
   -2.9204   -1.8613   -0.6188 C   0  0  0  0  0  0  0  0  0  0  0  0
   -3.9413   -1.0031   -0.4498 C   0  0  0  0  0  0  0  0  0  0  0  0
   -5.3696   -1.4321   -0.3944 C   0  0  0  0  0  0  0  0  0  0  0  0
   -6.3265   -0.3068   -0.1982 C   0  0  0  0  0  0  0  0  0  0  0  0
   -7.6427   -0.5548   -0.1306 C   0  0  0  0  0  0  0  0  0  0  0  0
   -8.6806    0.4759    0.0493 C   0  0  0  0  0  0  0  0  0  0  0  0
   -9.9446    0.1179    0.5180 C   0  0  0  0  0  0  0  0  0  0  0  0
   -8.3993    1.8091   -0.2494 C   0  0  0  0  0  0  0  0  0  0  0  0
  -10.9273    1.0931    0.6883 C   0  0  0  0  0  0  0  0  0  0  0  0
  -10.6461    2.4263    0.3895 C   0  0  0  0  0  0  0  0  0  0  0  0
   -9.3821    2.7842   -0.0794 C   0  0  0  0  0  0  0  0  0  0  0  0
  -12.3634   -0.6518    1.4286 C   0  0  0  0  0  0  0  0  0  0  0  0
    7.3140    0.5546   -0.0944 H   0  0  0  0  0  0  0  0  0  0  0  0
    8.8912    1.8809    1.2708 H   0  0  0  0  0  0  0  0  0  0  0  0
    5.3923    2.9349    0.2132 H   0  0  0  0  0  0  0  0  0  0  0  0
    5.1590    1.3639    0.9837 H   0  0  0  0  0  0  0  0  0  0  0  0
    7.8176    3.4301   -1.0210 H   0  0  0  0  0  0  0  0  0  0  0  0
    3.9511    1.8904   -1.2140 H   0  0  0  0  0  0  0  0  0  0  0  0
    6.2087    1.4642    2.7195 H   0  0  0  0  0  0  0  0  0  0  0  0
    7.7759    1.6248    3.4350 H   0  0  0  0  0  0  0  0  0  0  0  0
    7.3569    2.4754   -3.3529 H   0  0  0  0  0  0  0  0  0  0  0  0
    6.5688    3.8788    1.6166 H   0  0  0  0  0  0  0  0  0  0  0  0
    8.0799    3.8730    2.4859 H   0  0  0  0  0  0  0  0  0  0  0  0
    8.1106    4.1880    0.7786 H   0  0  0  0  0  0  0  0  0  0  0  0
    8.5944   -0.4486    2.3541 H   0  0  0  0  0  0  0  0  0  0  0  0
    7.0473   -0.6943    1.5757 H   0  0  0  0  0  0  0  0  0  0  0  0
    4.5681    0.5281   -3.8457 H   0  0  0  0  0  0  0  0  0  0  0  0
    5.4321    1.8892   -4.5686 H   0  0  0  0  0  0  0  0  0  0  0  0
    3.9429    2.1819   -3.6632 H   0  0  0  0  0  0  0  0  0  0  0  0
    9.4123    2.3280   -2.1524 H   0  0  0  0  0  0  0  0  0  0  0  0
    7.7822   -1.1417    4.4390 H   0  0  0  0  0  0  0  0  0  0  0  0
    2.6673    1.1358    0.0638 H   0  0  0  0  0  0  0  0  0  0  0  0
    4.8401   -0.7918    2.0770 H   0  0  0  0  0  0  0  0  0  0  0  0
    3.7976   -0.7474    3.4987 H   0  0  0  0  0  0  0  0  0  0  0  0
    4.2101   -2.2998    2.7387 H   0  0  0  0  0  0  0  0  0  0  0  0
    6.3593   -2.2490    5.8600 H   0  0  0  0  0  0  0  0  0  0  0  0
    5.1230   -3.1802    5.0065 H   0  0  0  0  0  0  0  0  0  0  0  0
    4.7051   -1.6322    5.7739 H   0  0  0  0  0  0  0  0  0  0  0  0
    1.6851   -3.3184   -1.8705 H   0  0  0  0  0  0  0  0  0  0  0  0
    0.4520    0.2820    0.1143 H   0  0  0  0  0  0  0  0  0  0  0  0
   -0.5131   -3.1993   -0.9537 H   0  0  0  0  0  0  0  0  0  0  0  0
    3.5215   -4.5260   -1.8108 H   0  0  0  0  0  0  0  0  0  0  0  0
    3.1625   -3.7776   -3.4319 H   0  0  0  0  0  0  0  0  0  0  0  0
    4.7848   -4.3134   -3.0155 H   0  0  0  0  0  0  0  0  0  0  0  0
   -1.4607   -0.2984   -0.6025 H   0  0  0  0  0  0  0  0  0  0  0  0
   -3.7461    0.0611   -0.3438 H   0  0  0  0  0  0  0  0  0  0  0  0
   -4.0864   -3.4106   -0.7198 H   0  0  0  0  0  0  0  0  0  0  0  0
   -5.9113    0.6895   -0.1032 H   0  0  0  0  0  0  0  0  0  0  0  0
   -8.0119   -1.5748   -0.2076 H   0  0  0  0  0  0  0  0  0  0  0  0
  -10.1095   -0.9322    0.7367 H   0  0  0  0  0  0  0  0  0  0  0  0
   -7.4370    2.1312   -0.6362 H   0  0  0  0  0  0  0  0  0  0  0  0
   -9.1515    3.8186   -0.3202 H   0  0  0  0  0  0  0  0  0  0  0  0
  -11.2238    4.2490    0.2958 H   0  0  0  0  0  0  0  0  0  0  0  0
  -13.3945   -0.7583    1.7819 H   0  0  0  0  0  0  0  0  0  0  0  0
  -11.7136   -1.0002    2.2387 H   0  0  0  0  0  0  0  0  0  0  0  0
  -12.2730   -1.2659    0.5261 H   0  0  0  0  0  0  0  0  0  0  0  0
  1 12  1  0  0  0  0
  1 20  1  0  0  0  0
  2 11  1  0  0  0  0
  2 61  1  0  0  0  0
  3 22  1  0  0  0  0
  3 30  1  0  0  0  0
  4 32  1  0  0  0  0
  4 78  1  0  0  0  0
  5 34  2  0  0  0  0
  6 40  1  0  0  0  0
  6 43  1  0  0  0  0
  7 41  1  0  0  0  0
  7 84  1  0  0  0  0
  8  9  1  0  0  0  0
  8 10  1  0  0  0  0
  8 11  1  0  0  0  0
  8 44  1  0  0  0  0
  9 13  1  0  0  0  0
  9 16  1  0  0  0  0
  9 45  1  0  0  0  0
 10 12  1  0  0  0  0
 10 46  1  0  0  0  0
 10 47  1  0  0  0  0
 11 15  1  0  0  0  0
 11 48  1  0  0  0  0
 12 14  1  0  0  0  0
 12 49  1  0  0  0  0
 13 17  1  0  0  0  0
 13 50  1  0  0  0  0
 13 51  1  0  0  0  0
 14 15  2  0  0  0  0
 14 18  1  0  0  0  0
 15 52  1  0  0  0  0
 16 53  1  0  0  0  0
 16 54  1  0  0  0  0
 16 55  1  0  0  0  0
 17 19  1  0  0  0  0
 17 56  1  0  0  0  0
 17 57  1  0  0  0  0
 18 58  1  0  0  0  0
 18 59  1  0  0  0  0
 18 60  1  0  0  0  0
 19 21  2  0  0  0  0
 19 62  1  0  0  0  0
 20 22  2  0  0  0  0
 20 23  1  0  0  0  0
 21 24  1  0  0  0  0
 21 25  1  0  0  0  0
 22 26  1  0  0  0  0
 23 27  2  0  0  0  0
 23 63  1  0  0  0  0
 24 64  1  0  0  0  0
 24 65  1  0  0  0  0
 24 66  1  0  0  0  0
 25 67  1  0  0  0  0
 25 68  1  0  0  0  0
 25 69  1  0  0  0  0
 26 28  2  0  0  0  0
 26 70  1  0  0  0  0
 27 28  1  0  0  0  0
 27 71  1  0  0  0  0
 28 29  1  0  0  0  0
 29 31  2  0  0  0  0
 29 72  1  0  0  0  0
 30 73  1  0  0  0  0
 30 74  1  0  0  0  0
 30 75  1  0  0  0  0
 31 32  1  0  0  0  0
 31 76  1  0  0  0  0
 32 33  2  0  0  0  0
 33 34  1  0  0  0  0
 33 77  1  0  0  0  0
 34 35  1  0  0  0  0
 35 36  2  0  0  0  0
 35 79  1  0  0  0  0
 36 37  1  0  0  0  0
 36 80  1  0  0  0  0
 37 38  2  0  0  0  0
 37 39  1  0  0  0  0
 38 40  1  0  0  0  0
 38 81  1  0  0  0  0
 39 42  2  0  0  0  0
 39 82  1  0  0  0  0
 40 41  2  0  0  0  0
 41 42  1  0  0  0  0
 42 83  1  0  0  0  0
 43 85  1  0  0  0  0
 43 86  1  0  0  0  0
 43 87  1  0  0  0  0
M  END
> <PUBCHEM_COMPOUND_CID>
71459743

> <PUBCHEM_CONFORMER_RMSD>
1.2

> <PUBCHEM_CONFORMER_DIVERSEORDER>
30
57
94
8
63
14
68
47
80
103
117
69
66
62
35
54
50
118
67
84
23
51
36
58
92
85
121
89
61
78
28
74
96
93
112
52
73
26
21
40
124
98
111
59
48
77
87
97
20
31
99
39
95
114
7
22
83
107
105
79
12
60
18
72
29
43
100
37
70
16
55
24
45
90
122
15
34
104
11
13
86
53
44
101
6
75
102
17
108
106
65
10
110
64
3
38
9
41
88
32
120
25
82
81
56
123
76
1
115
2
19
109
113
4
27
71
116
91
46
42
33
5
49
119

> <PUBCHEM_MMFF94_PARTIAL_CHARGES>
54
1 -0.36
11 0.42
12 0.42
14 -0.28
15 -0.29
17 0.14
18 0.14
19 -0.29
2 -0.68
20 0.08
21 -0.28
22 0.08
23 -0.15
24 0.14
25 0.14
26 -0.15
27 -0.15
28 0.03
29 -0.18
3 -0.36
30 0.28
31 -0.15
32 0.08
33 -0.14
34 0.54
35 -0.14
36 -0.18
37 0.03
38 -0.15
39 -0.15
4 -0.53
40 0.08
41 0.08
42 -0.15
43 0.28
5 -0.57
52 0.15
6 -0.36
61 0.4
62 0.15
63 0.15
7 -0.53
70 0.15
71 0.15
72 0.15
76 0.15
77 0.15
78 0.45
79 0.15
80 0.15
81 0.15
82 0.15
83 0.15
84 0.45

> <PUBCHEM_EFFECTIVE_ROTOR_COUNT>
13.8

> <PUBCHEM_PHARMACOPHORE_FEATURES>
14
1 1 acceptor
1 16 hydrophobe
1 2 acceptor
1 2 donor
1 3 acceptor
1 4 donor
1 5 acceptor
1 6 acceptor
1 7 donor
3 21 24 25 hydrophobe
4 9 13 17 19 hydrophobe
6 20 22 23 26 27 28 rings
6 37 38 39 40 41 42 rings
6 8 10 11 12 14 15 rings

> <PUBCHEM_HEAVY_ATOM_COUNT>
43

> <PUBCHEM_ATOM_DEF_STEREO_COUNT>
4

> <PUBCHEM_ATOM_UDEF_STEREO_COUNT>
0

> <PUBCHEM_BOND_DEF_STEREO_COUNT>
3

> <PUBCHEM_BOND_UDEF_STEREO_COUNT>
0

> <PUBCHEM_ISOTOPIC_ATOM_COUNT>
0

> <PUBCHEM_COMPONENT_COUNT>
1

> <PUBCHEM_CACTVS_TAUTO_COUNT>
17

> <PUBCHEM_CONFORMER_ID>
0442639F0000001E

> <PUBCHEM_MMFF94_ENERGY>
137.2772

> <PUBCHEM_FEATURE_SELFOVERLAP>
71.052

> <PUBCHEM_SHAPE_FINGERPRINT>
10533779 47 15791725278892862633
11061554 47 18202003244567535001
11607047 141 18187643545257035570
11607047 191 17130963470535590314
11973864 47 18271528685075577979
12098696 120 18060147565475599045
13947947 74 18060425712100711793
14400156 260 18260551117237351324
15274700 259 16630528440801145480
17852330 31 17022904566693580947
19302320 297 18261674865128838789
19315958 150 18343027679465869711
20501277 180 17917998274099419305
20554085 129 17489018379837681374
22149856 69 18341896277173170964
24771293 8 18335985342208275759
25242607 90 10737291294701347557
2851757 41 8070026680219179517
3918712 181 18202279238263590985
45270241 37 18201168654796091823
4760202 170 16200147729173753520
6289498 60 18336828603049834753
636783 129 17530677693612176426

> <PUBCHEM_SHAPE_MULTIPOLES>
843.83
46.28
4.02
3.86
156.21
0.47
-0.04
-23.86
37.57
-8.7
1.9
-9.15
2.89
-8.09

> <PUBCHEM_SHAPE_SELFOVERLAP>
1761.817

> <PUBCHEM_SHAPE_VOLUME>
476.5

> <PUBCHEM_COORDINATE_TYPE>
2
5
10

$$$$
